<?xml version="1.0" encoding="UTF-8"?>


<additional xmlns:xsi="http://www.w3.org/2001/XMLSchema-instance" xsi:noNamespaceSchemaLocation="http://sumo.dlr.de/xsd/additional_file.xsd">
    <edgeData id="data1" file="edge_output.xml" freq="120" begin="46800" end="50400"
                excludeEmpty="false" aggregate="false" 
     />


</additional>