<?xml version="1.0" encoding="UTF-8"?>

<additional xmlns:xsi="http://www.w3.org/2001/XMLSchema-instance" xsi:noNamespaceSchemaLocation="http://sumo.dlr.de/xsd/additional_file.xsd">
    
	<vType id="HDC" vClass="passenger" lcStrategic="0.5" probability="0.5" />
    <!-- 自动驾驶车辆，建议归类为 passenger，如果这是你的实验要求 -->
    <vType id="CAV4" vClass="passenger" speedDev="0.05" carFollowModel="IDM" minGap="1" tau="0.5" sigma="0.05" probability="0.25"/>
    <vType id="CAV2" vClass="passenger" speedDev="0.05" carFollowModel="IDM" minGap="1.5" tau="0.8" sigma="0.05" lcStrategic="0.5" probability="0.25"/>


    <!-- Platooning 车辆类型定义（用于转换后） -->
    <vType id="t_leader" color="yellow"/>
    <vType id="t_follower" color="green" minGap="0.5" tau="0.5"/>
    <vType id="t_catchup" color="red" minGap="0.5" tau="0.5"/>
    <vType id="t_catchupFollower" color="blue" minGap="0.5" tau="0.5"/>

    <!-- 分布定义 -->
    <!-- 分布1：用于参与 platooning 的车辆（自动驾驶车辆：CAV2 和 CAV4） -->
    <vTypeDistribution id="PKW_PLATOON" vTypes="HDC CAV2 CAV4"/>
    <!-- 分布2：用于非 platooning HDC -->
    <!-- <vTypeDistribution id="PKW_NONPLATOON" vTypes="HDC"/>   -->
	
</additional>
