<?xml version="1.0" encoding="UTF-8"?>

<configuration xmlns:xsi="http://www.w3.org/2001/XMLSchema-instance" xsi:noNamespaceSchemaLocation="http://sumo.dlr.de/xsd/sumoConfiguration.xsd">

    <input>
        <net-file value="M50network.net.xml"/>
		<additional-files value="edgesData.add.xml,simpla.cfg.xml,vtypes.add.xml,M50_routes.rou.xml,M50_emitters.emi.xml,M50_detectors.poi.xml"/>
		<tripinfo-output value="tripinfo.xml"/>
		<!-- <emission-output value="emission.xml"/> -->
    </input>

    <output>
        <!-- 指定 FCD 输出文件 -->
        <!-- <fcd-output value="fcd.xml"/>
        <collision-output value="collisions.xml"/> -->
    </output>

    <time>
        <begin value="46800"/> <!-- 13:00 -->
        <end   value="50400"/> <!-- 14:00 -->
    </time>

<!-- 	
    <time>
        <begin value="0"/>
        <end value="86400"/>
        <step-length value="0.5"/>
    </time> -->
	
	
	<processing>
		<emergencydecel.warning-threshold value="5"/>
		<collision.mingap-factor value="0"/>
	</processing>
	

</configuration>