<?xml version="1.0" encoding="UTF-8"?>

<additional xmlns:xsi="http://www.w3.org/2001/XMLSchema-instance" xsi:noNamespaceSchemaLocation="http://sumo.dlr.de/xsd/additional_file.xsd">
    
	<vType id="HDC" vClass="passenger" lcStrategic="0.5" probability="0" />
    <!-- 自动驾驶车辆，建议归类为 passenger，如果这是你的实验要求 -->
    <vType id="CAV2" vClass="passenger" speedDev="0.05"
    carFollowModel="IDM"
    minGap="1.5" tau="0.8" sigma="0.2"
    accel="1.0" decel="4.5"
    lcStrategic="0.5" lcCooperative="0.0"
    lcSpeedGain="0.5"
    probability="0.5"/>
    <vType id="CAV4" vClass="passenger" speedDev="0.05"
    carFollowModel="IDM"
    minGap="1.0" tau="0.6" sigma="0.05"
    accel="1.8" decel="3.0"
    lcStrategic="1.0" lcCooperative="1.0"
    lcSpeedGain="1.0" lcPushy="0.2"
    probability="0.5"/>

    <!-- Platooning 车辆类型定义（用于转换后） -->
    <vType id="t_leader" color="yellow"/>
    <vType id="t_follower" color="green" minGap="0.5" tau="0.5"/>
    <vType id="t_catchup" color="red" minGap="0.5" tau="0.5"/>
    <vType id="t_catchupFollower" color="blue" minGap="0.5" tau="0.5"/>

    <!-- 分布定义 -->
    <!-- 分布1：用于参与 platooning 的车辆（自动驾驶车辆：CAV2 和 CAV4） -->
    <vTypeDistribution id="PKW_PLATOON" vTypes="HDC CAV2 CAV4"/>
    <!-- 分布2：用于非 platooning HDC -->
    <!-- <vTypeDistribution id="PKW_NONPLATOON" vTypes="HDC"/>   -->
	
</additional>
