<?xml version="1.0" encoding="UTF-8"?>

<additional xmlns:xsi="http://www.w3.org/2001/XMLSchema-instance" xsi:noNamespaceSchemaLocation="http://sumo.dlr.de/xsd/additional_file.xsd">
    
	
    <!-- 保持HDC定义不变 -->
    <vType id="HDC" vClass="passenger" carFollowModel="Krauss" 
    lcStrategic="0.5" probability="0">
    <param key="has.ssm.device" value="true"/>
        <!-- 2. 指定该类型车辆的输出文件（可按需改名） -->
    <param key="device.ssm.file" value="ssm_HDC.xml"/>
    <param key="device.ssm.measures" value="TTC"/>
    <!-- 阈值顺序对应上面三项：SGAP=0.2m, TGAP=0.5s, TTC=1.5s -->
    <param key="device.ssm.thresholds" value="0.5"/>

    <!-- 5. 探测半径，默认 50 米 -->
    <param key="device.ssm.range" value="20.0"/>

    <!-- 6. 冲突结束后继续跟踪的额外时间，默认 5 秒 -->
    <param key="device.ssm.extratime" value="0"/>
    </vType>

    <vType id="CAV2" vClass="passenger" speedDev="0.05"
        carFollowModel="CACC"
        minGap="1.8" tau="0.9" sigma="0.2"
        accel="3.0" decel="5.5"
        lcStrategic="0.7" lcCooperative="0.0"
        lcSpeedGain="0.5"
        probability="0.6">
        <param key="has.ssm.device" value="true"/>
        <!-- 2. 指定该类型车辆的输出文件（可按需改名） -->
        <param key="device.ssm.file" value="ssm_CAV2.xml"/>


        <param key="device.ssm.measures" value="TTC"/>
        <!-- 阈值顺序对应上面三项：SGAP=0.2m, TGAP=0.5s, TTC=1.5s -->
        <param key="device.ssm.thresholds" value="0.5"/>

        <!-- 5. 探测半径，默认 50 米 -->
        <param key="device.ssm.range" value="20.0"/>

        <!-- 6. 冲突结束后继续跟踪的额外时间，默认 5 秒 -->
        <param key="device.ssm.extratime" value="0"/>
    </vType>

    <vType id="CAV4" vClass="passenger" speedDev="0.05"
        carFollowModel="CACC"
        minGap="1.0" tau="0.6" sigma="0.05"
        accel="2.0" decel="3.0"
        lcStrategic="0.8" lcCooperative="1.0"
        lcSpeedGain="1.0" lcPushy="0.2"
        probability="0.4">
        <param key="has.ssm.device" value="true"/>
        <!-- 2. 指定该类型车辆的输出文件（可按需改名） -->
        <param key="device.ssm.file" value="ssm_CAV4.xml"/>


        <param key="device.ssm.measures" value="TTC"/>
        <!-- 阈值顺序对应上面三项：SGAP=0.2m, TGAP=0.5s, TTC=1.5s -->
        <param key="device.ssm.thresholds" value="0.5"/>

        <!-- 5. 探测半径，默认 50 米 -->
        <param key="device.ssm.range" value="20.0"/>

        <!-- 6. 冲突结束后继续跟踪的额外时间，默认 5 秒 -->
        <param key="device.ssm.extratime" value="0"/>
    </vType>

   


    <!-- Platooning 车辆类型定义（用于转换后） -->
    <vType id="t_leader" color="yellow"/>
    
    <vType id="t_follower" color="green" minGap="0.4" tau="0.4"/>
    <vType id="t_catchup" color="red" minGap="0.4" tau="0.4"/>
    <vType id="t_catchupFollower" color="blue" minGap="0.4" tau="0.4"/>

    <!-- 分布定义 -->
    <!-- 分布1：用于参与 platooning 的车辆（自动驾驶车辆：CAV2 和 CAV4） -->
    <vTypeDistribution id="PKW_PLATOON" vTypes="HDC CAV2 CAV4"/>
    <!-- 分布2：用于非 platooning HDC -->
    <!-- <vTypeDistribution id="PKW_NONPLATOON" vTypes="HDC"/>   -->
	
</additional>