<?xml version="1.0" encoding="UTF-8"?>

<additional xmlns:xsi="http://www.w3.org/2001/XMLSchema-instance" xsi:noNamespaceSchemaLocation="http://sumo.dlr.de/xsd/additional_file.xsd">
    


    <vType id="HDC" vClass="passenger"  probability="0.5"  lcStrategic="1.5"
    lcSpeedGain="2.0"
    lcCooperative="0.0">    <param key="laneChangeMode" value="0"/>
    </vType>
    <!-- 自动驾驶车辆，建议归类为 passenger，如果这是你的实验要求 -->
    <vType id="CAV4" vClass="passenger" speedDev="0.05" carFollowModel="IDM" minGap="1" tau="0.5" sigma="0.05" probability="0.25" lcStrategic="1.5"
    lcSpeedGain="2.0"
    lcCooperative="0.0">    <param key="laneChangeMode" value="0"/>
    </vType>
    <vType id="CAV2" vClass="passenger" speedDev="0.05" carFollowModel="IDM" minGap="1.5" tau="0.8" sigma="0.2"  probability="0.25" lcStrategic="1.5"
    lcSpeedGain="2.0"
    lcCooperative="0.0">    <param key="laneChangeMode" value="0"/>
    </vType>


    <!-- Platooning 车辆类型定义（用于转换后） -->
    <vType id="t_leader" color="yellow" lcStrategic="1.5"
    lcSpeedGain="2.0"
    lcCooperative="0.0">    <param key="laneChangeMode" value="0"/>
    </vType>
    <vType id="t_follower" color="green" minGap="0.5" tau="0.5" lcStrategic="1.5"
    lcSpeedGain="2.0"
    lcCooperative="0.0">    <param key="laneChangeMode" value="0"/>
    </vType>
    <vType id="t_catchup" color="red" minGap="0.5" tau="0.5" lcStrategic="1.5"
    lcSpeedGain="2.0"
    lcCooperative="0.0">    <param key="laneChangeMode" value="0"/>
    </vType>
    <vType id="t_catchupFollower" color="blue" minGap="0.5" tau="0.5" lcStrategic="1.5"
    lcSpeedGain="2.0"
    lcCooperative="0.0">    <param key="laneChangeMode" value="0"/>
    </vType>

    <!-- 分布定义 -->
    <!-- 分布1：用于参与 platooning 的车辆（自动驾驶车辆：CAV2 和 CAV4） -->
    <vTypeDistribution id="PKW_PLATOON" vTypes="HDC CAV2 CAV4"/>
	
</additional>